New Linecode.66_HDCU_(19/2.11)_3 units=km nphases=3 R1=0.302 R0=0.302 X1=0.359 X0=0.359  BaseFreq=50 normamps=400.0 emergamps=600.0
New Linecode.LV_240AL_XLPE_3 units=km nphases=3 R1=0.279 R0=0.265 X1=0.062 X0=0.062 BaseFreq=50 normamps=400.0 emergamps=600.0
