New Line.L48563_02_03 Units=km Length=0.081 bus1=03.1.2.3 bus2=02.1.2.3 switch=n enabled=y phases=3 Linecode=3P_Code2
New Line.L48564_03_08 Units=km Length=0.016 bus1=08.1.2.3 bus2=03.1.2.3 switch=n enabled=y phases=3 Linecode=3P_Code2
New Line.L48565_05_04 Units=km Length=0.025 bus1=04.1.2.3 bus2=05.1.2.3 switch=n enabled=y phases=3 Linecode=3P_Code3
New Line.L48566_06_05 Units=km Length=0.036000000000000004 bus1=05.1.2.3 bus2=06.1.2.3 switch=n enabled=y phases=3 Linecode=3P_Code3
New Line.L48567_07_06 Units=km Length=0.043000000000000003 bus1=06.1.2.3 bus2=07.1.2.3 switch=n enabled=y phases=3 Linecode=3P_Code3
New Line.L48568_08_07 Units=km Length=0.05 bus1=07.1.2.3 bus2=08.1.2.3 switch=n enabled=y phases=3 Linecode=3P_Code3
New Line.L48569_08_09 Units=km Length=0.024 bus1=09.1.2.3 bus2=08.1.2.3 switch=n enabled=y phases=3 Linecode=3P_OH_Code1
New Line.L48570_09_21 Units=km Length=0.047 bus1=21.1.2.3 bus2=09.1.2.3 switch=n enabled=y phases=3 Linecode=3P_OH_Code1
New Line.L48574_15_14 Units=km Length=0.043000000000000003 bus1=14.1.2.3 bus2=15.1.2.3 switch=n enabled=y phases=3 Linecode=3P_OH_Code1
New Line.L48575_16_15 Units=km Length=0.048 bus1=15.1.2.3 bus2=16.1.2.3 switch=n enabled=y phases=3 Linecode=3P_OH_Code1
New Line.L48576_17_16 Units=km Length=0.041 bus1=16.1.2.3 bus2=17.1.2.3 switch=n enabled=y phases=3 Linecode=3P_OH_Code1
New Line.L48577_18_17 Units=km Length=0.043000000000000003 bus1=17.1.2.3 bus2=18.1.2.3 switch=n enabled=y phases=3 Linecode=3P_OH_Code1
New Line.L48578_19_18 Units=km Length=0.031 bus1=18.1.2.3 bus2=19.1.2.3 switch=n enabled=y phases=3 Linecode=3P_OH_Code1
New Line.L48579_20_19 Units=km Length=0.038 bus1=19.1.2.3 bus2=20.1.2.3 switch=n enabled=y phases=3 Linecode=3P_OH_Code1
New Line.L48580_21_20 Units=km Length=0.041 bus1=20.1.2.3 bus2=21.1.2.3 switch=n enabled=y phases=3 Linecode=3P_OH_Code1
New Line.L48581_21_22 Units=km Length=0.027 bus1=22.1.2.3 bus2=21.1.2.3 switch=n enabled=y phases=3 Linecode=3P_OH_Code0
New Line.L48582_22_24 Units=km Length=0.026000000000000002 bus1=24.1.2.3 bus2=22.1.2.3 switch=n enabled=y phases=3 Linecode=3P_OH_Code0
New Line.L48583_24_23 Units=km Length=0.031 bus1=23.1.2.3 bus2=24.1.2.3 switch=n enabled=y phases=3 Linecode=3P_OH_Code0
