New Line.line_75587503_3095258_3095139 Units=km Length=0.03920000076293945 bus1=3095139.1 bus2=3095258.1 switch=n enabled=y phases=1 Linecode=1P_Code0
New Line.line_75587645_3095997_3095258 Units=km Length=0.028799999237060548 bus1=3095258.1 bus2=3095997.1 switch=n enabled=y phases=1 Linecode=1P_Code0
