New Load.NMI_elem_75589804 bus1=3095997.1 kV=0.23094010767585033 Vminpu=0.7 Vmaxpu=1.3 model=1 kW=4.219598398291787 kvar=0.8568259991705196 Phases=1
