New Linecode.1P_Code0 units=km nphases=1 R1=1.29 R0=1e-05 X1=0.258 X0=1e-05 
