New Load.1 bus1=3106658.2 kV=0.23094010767585033 Vminpu=0.7 Vmaxpu=1.3 model=1 kW=3.0984999593579574 kvar=0.6291772517217432 Phases=1
New Load.2 bus1=3106898.2 kV=0.23094010767585033 Vminpu=0.7 Vmaxpu=1.3 model=1 kW=0.13352974311758403 kvar=0.027114370792259247 Phases=1
