New Linecode.3P_OH_Code0 units=km nphases=3 R1=0.05 R0=0.10 X1=0.05 X0=0.2 
New Linecode.3P_OH_Code1 units=km nphases=3 R1=0.05 R0=0.10 X1=0.05 X0=0.2 
