New Load.1 bus1=7054.1.2.3 kV=0.41500000000000004 Vminpu=0.7 Vmaxpu=1.3 model=1 kW=0.0 kvar=0.0 Phases=3
New Load.2 bus1=8667.1.2.3 kV=0.41500000000000004 Vminpu=0.7 Vmaxpu=1.3 model=1 kW=0.0 kvar=0.0 Phases=3
New Load.3 bus1=8670.1.2.3 kV=0.41500000000000004 Vminpu=0.7 Vmaxpu=1.3 model=1 kW=0.0 kvar=0.0 Phases=3
New Load.4 bus1=8673.1.2.3 kV=0.41500000000000004 Vminpu=0.7 Vmaxpu=1.3 model=1 kW=0.0 kvar=0.0 Phases=3
New Load.5 bus1=8674.1.2.3 kV=0.41500000000000004 Vminpu=0.7 Vmaxpu=1.3 model=1 kW=0.0 kvar=0.0 Phases=3
New Load.6 bus1=7768.1.2.3 kV=0.41500000000000004 Vminpu=0.7 Vmaxpu=1.3 model=1 kW=0.0 kvar=0.0 Phases=3
New Load.7 bus1=7356.1.2.3 kV=0.41500000000000004 Vminpu=0.7 Vmaxpu=1.3 model=1 kW=0.0 kvar=0.0 Phases=3
New Load.8 bus1=7637.1.2.3 kV=0.41500000000000004 Vminpu=0.7 Vmaxpu=1.3 model=1 kW=0.0 kvar=0.0 Phases=3
New Load.9 bus1=7455.1.2.3 kV=0.41500000000000004 Vminpu=0.7 Vmaxpu=1.3 model=1 kW=0.0 kvar=0.0 Phases=3
New Load.10 bus1=7509.1.2.3 kV=0.41500000000000004 Vminpu=0.7 Vmaxpu=1.3 model=1 kW=0.0 kvar=0.0 Phases=3
New Load.11 bus1=8235.1.2.3 kV=0.41500000000000004 Vminpu=0.7 Vmaxpu=1.3 model=1 kW=0.0 kvar=0.0 Phases=3
New Load.12 bus1=8215.1.2.3 kV=0.41500000000000004 Vminpu=0.7 Vmaxpu=1.3 model=1 kW=0.0 kvar=0.0 Phases=3
New Load.13 bus1=8214.1.2.3 kV=0.41500000000000004 Vminpu=0.7 Vmaxpu=1.3 model=1 kW=0.0 kvar=0.0 Phases=3
New Load.14 bus1=7660.1.2.3 kV=0.41500000000000004 Vminpu=0.7 Vmaxpu=1.3 model=1 kW=0.0 kvar=0.0 Phases=3
New Load.15 bus1=7714.1.2.3 kV=0.41500000000000004 Vminpu=0.7 Vmaxpu=1.3 model=1 kW=0.0 kvar=0.0 Phases=3
New Load.16 bus1=7814.1.2.3 kV=0.41500000000000004 Vminpu=0.7 Vmaxpu=1.3 model=1 kW=0.0 kvar=0.0 Phases=3
New Load.17 bus1=8794.1.2.3 kV=0.41500000000000004 Vminpu=0.7 Vmaxpu=1.3 model=1 kW=0.0 kvar=0.0 Phases=3
New Load.18 bus1=8359.1.2.3 kV=0.41500000000000004 Vminpu=0.7 Vmaxpu=1.3 model=1 kW=0.0 kvar=0.0 Phases=3
New Load.19 bus1=8875.1.2.3 kV=0.41500000000000004 Vminpu=0.7 Vmaxpu=1.3 model=1 kW=0.0 kvar=0.0 Phases=3
New Load.20 bus1=8477.1.2.3 kV=0.41500000000000004 Vminpu=0.7 Vmaxpu=1.3 model=1 kW=0.0 kvar=0.0 Phases=3
New Load.21 bus1=7266.1.2.3 kV=0.41500000000000004 Vminpu=0.7 Vmaxpu=1.3 model=1 kW=0.0 kvar=0.0 Phases=3
New Load.22 bus1=8591.1.2.3 kV=0.41500000000000004 Vminpu=0.7 Vmaxpu=1.3 model=1 kW=0.0 kvar=0.0 Phases=3
New Load.23 bus1=8755.1.2.3 kV=0.41500000000000004 Vminpu=0.7 Vmaxpu=1.3 model=1 kW=0.0 kvar=0.0 Phases=3
New Load.24 bus1=7392.1.2.3 kV=0.41500000000000004 Vminpu=0.7 Vmaxpu=1.3 model=1 kW=0.0 kvar=0.0 Phases=3
New Load.25 bus1=8176.1.2.3 kV=0.41500000000000004 Vminpu=0.7 Vmaxpu=1.3 model=1 kW=0.0 kvar=0.0 Phases=3
New Load.26 bus1=8180.1.2.3 kV=0.41500000000000004 Vminpu=0.7 Vmaxpu=1.3 model=1 kW=0.0 kvar=0.0 Phases=3
New Load.27 bus1=8179.1.2.3 kV=0.41500000000000004 Vminpu=0.7 Vmaxpu=1.3 model=1 kW=0.0 kvar=0.0 Phases=3
New Load.28 bus1=7879.1.2.3 kV=0.41500000000000004 Vminpu=0.7 Vmaxpu=1.3 model=1 kW=0.0 kvar=0.0 Phases=3
New Load.29 bus1=8873.1.2.3 kV=0.41500000000000004 Vminpu=0.7 Vmaxpu=1.3 model=1 kW=0.0 kvar=0.0 Phases=3
New Load.30 bus1=8383.1.2.3 kV=0.41500000000000004 Vminpu=0.7 Vmaxpu=1.3 model=1 kW=0.0 kvar=0.0 Phases=3
New Load.31 bus1=8382.1.2.3 kV=0.41500000000000004 Vminpu=0.7 Vmaxpu=1.3 model=1 kW=0.0 kvar=0.0 Phases=3
New Load.32 bus1=8422.1.2.3 kV=0.41500000000000004 Vminpu=0.7 Vmaxpu=1.3 model=1 kW=0.0 kvar=0.0 Phases=3
New Load.33 bus1=7035.1.2.3 kV=0.41500000000000004 Vminpu=0.7 Vmaxpu=1.3 model=1 kW=0.0 kvar=0.0 Phases=3
New Load.34 bus1=6777.1.2.3 kV=0.41500000000000004 Vminpu=0.7 Vmaxpu=1.3 model=1 kW=0.0 kvar=0.0 Phases=3
New Load.35 bus1=7495.1.2.3 kV=0.41500000000000004 Vminpu=0.7 Vmaxpu=1.3 model=1 kW=0.0 kvar=0.0 Phases=3
New Load.36 bus1=7225.1.2.3 kV=0.41500000000000004 Vminpu=0.7 Vmaxpu=1.3 model=1 kW=0.0 kvar=0.0 Phases=3
New Load.37 bus1=7997.1.2.3 kV=0.41500000000000004 Vminpu=0.7 Vmaxpu=1.3 model=1 kW=0.0 kvar=0.0 Phases=3
New Load.38 bus1=8121.1.2.3 kV=0.41500000000000004 Vminpu=0.7 Vmaxpu=1.3 model=1 kW=0.0 kvar=0.0 Phases=3
New Load.39 bus1=8118.1.2.3 kV=0.41500000000000004 Vminpu=0.7 Vmaxpu=1.3 model=1 kW=0.0 kvar=0.0 Phases=3
New Load.40 bus1=7139.1.2.3 kV=0.41500000000000004 Vminpu=0.7 Vmaxpu=1.3 model=1 kW=0.0 kvar=0.0 Phases=3
New Load.41 bus1=7138.1.2.3 kV=0.41500000000000004 Vminpu=0.7 Vmaxpu=1.3 model=1 kW=0.0 kvar=0.0 Phases=3
New Load.42 bus1=6954.1.2.3 kV=0.41500000000000004 Vminpu=0.7 Vmaxpu=1.3 model=1 kW=0.0 kvar=0.0 Phases=3
New Load.43 bus1=6976.1.2.3 kV=0.41500000000000004 Vminpu=0.7 Vmaxpu=1.3 model=1 kW=0.0 kvar=0.0 Phases=3
New Load.44 bus1=7653.1.2.3 kV=0.41500000000000004 Vminpu=0.7 Vmaxpu=1.3 model=1 kW=0.0 kvar=0.0 Phases=3
New Load.45 bus1=7652.1.2.3 kV=0.41500000000000004 Vminpu=0.7 Vmaxpu=1.3 model=1 kW=0.0 kvar=0.0 Phases=3
New Load.46 bus1=7659.1.2.3 kV=0.41500000000000004 Vminpu=0.7 Vmaxpu=1.3 model=1 kW=0.0 kvar=0.0 Phases=3
New Load.47 bus1=7369.1.2.3 kV=0.41500000000000004 Vminpu=0.7 Vmaxpu=1.3 model=1 kW=0.0 kvar=0.0 Phases=3
New Load.48 bus1=7871.1.2.3 kV=0.41500000000000004 Vminpu=0.7 Vmaxpu=1.3 model=1 kW=0.0 kvar=0.0 Phases=3
New Load.49 bus1=7901.1.2.3 kV=0.41500000000000004 Vminpu=0.7 Vmaxpu=1.3 model=1 kW=0.0 kvar=0.0 Phases=3
New Load.50 bus1=8830.1.2.3 kV=0.41500000000000004 Vminpu=0.7 Vmaxpu=1.3 model=1 kW=0.0 kvar=0.0 Phases=3
New Load.51 bus1=8435.1.2.3 kV=0.41500000000000004 Vminpu=0.7 Vmaxpu=1.3 model=1 kW=0.0 kvar=0.0 Phases=3
New Load.52 bus1=7033.1.2.3 kV=0.41500000000000004 Vminpu=0.7 Vmaxpu=1.3 model=1 kW=0.0 kvar=0.0 Phases=3
New Load.53 bus1=8297.1.2.3 kV=0.41500000000000004 Vminpu=0.7 Vmaxpu=1.3 model=1 kW=0.0 kvar=0.0 Phases=3
New Load.54 bus1=6851.1.2.3 kV=0.41500000000000004 Vminpu=0.7 Vmaxpu=1.3 model=1 kW=0.0 kvar=0.0 Phases=3
New Load.55 bus1=6853.1.2.3 kV=0.41500000000000004 Vminpu=0.7 Vmaxpu=1.3 model=1 kW=0.0 kvar=0.0 Phases=3
New Load.56 bus1=7092.1.2.3 kV=0.41500000000000004 Vminpu=0.7 Vmaxpu=1.3 model=1 kW=0.0 kvar=0.0 Phases=3
New Load.57 bus1=6745.1.2.3 kV=0.41500000000000004 Vminpu=0.7 Vmaxpu=1.3 model=1 kW=0.0 kvar=0.0 Phases=3
New Load.58 bus1=8291.1.2.3 kV=0.41500000000000004 Vminpu=0.7 Vmaxpu=1.3 model=1 kW=0.0 kvar=0.0 Phases=3
New Load.59 bus1=6810.1.2.3 kV=0.41500000000000004 Vminpu=0.7 Vmaxpu=1.3 model=1 kW=0.0 kvar=0.0 Phases=3
New Load.60 bus1=8208.1.2.3 kV=0.41500000000000004 Vminpu=0.7 Vmaxpu=1.3 model=1 kW=0.0 kvar=0.0 Phases=3
New Load.61 bus1=7017.1.2.3 kV=0.41500000000000004 Vminpu=0.7 Vmaxpu=1.3 model=1 kW=0.0 kvar=0.0 Phases=3
New Load.62 bus1=7412.1.2.3 kV=0.41500000000000004 Vminpu=0.7 Vmaxpu=1.3 model=1 kW=0.0 kvar=0.0 Phases=3
New Load.63 bus1=8360.1.2.3 kV=0.41500000000000004 Vminpu=0.7 Vmaxpu=1.3 model=1 kW=0.0 kvar=0.0 Phases=3
New Load.64 bus1=7363.1.2.3 kV=0.41500000000000004 Vminpu=0.7 Vmaxpu=1.3 model=1 kW=0.0 kvar=0.0 Phases=3
New Load.65 bus1=7502.1.2.3 kV=0.41500000000000004 Vminpu=0.7 Vmaxpu=1.3 model=1 kW=0.0 kvar=0.0 Phases=3
New Load.66 bus1=7056.1.2.3 kV=0.41500000000000004 Vminpu=0.7 Vmaxpu=1.3 model=1 kW=0.0 kvar=0.0 Phases=3
New Load.67 bus1=8956.1.2.3 kV=0.41500000000000004 Vminpu=0.7 Vmaxpu=1.3 model=1 kW=0.0 kvar=0.0 Phases=3
New Load.68 bus1=8225.1.2.3 kV=0.41500000000000004 Vminpu=0.7 Vmaxpu=1.3 model=1 kW=0.0 kvar=0.0 Phases=3
New Load.69 bus1=6858.1.2.3 kV=0.41500000000000004 Vminpu=0.7 Vmaxpu=1.3 model=1 kW=0.0 kvar=0.0 Phases=3
New Load.70 bus1=7490.1.2.3 kV=0.41500000000000004 Vminpu=0.7 Vmaxpu=1.3 model=1 kW=0.0 kvar=0.0 Phases=3
New Load.71 bus1=7420.1.2.3 kV=0.41500000000000004 Vminpu=0.7 Vmaxpu=1.3 model=1 kW=0.0 kvar=0.0 Phases=3
New Load.72 bus1=7413.1.2.3 kV=0.41500000000000004 Vminpu=0.7 Vmaxpu=1.3 model=1 kW=0.0 kvar=0.0 Phases=3
New Load.73 bus1=7416.1.2.3 kV=0.41500000000000004 Vminpu=0.7 Vmaxpu=1.3 model=1 kW=0.0 kvar=0.0 Phases=3
New Load.74 bus1=7408.1.2.3 kV=0.41500000000000004 Vminpu=0.7 Vmaxpu=1.3 model=1 kW=0.0 kvar=0.0 Phases=3
New Load.75 bus1=7411.1.2.3 kV=0.41500000000000004 Vminpu=0.7 Vmaxpu=1.3 model=1 kW=0.0 kvar=0.0 Phases=3
New Load.76 bus1=8320.1.2.3 kV=0.41500000000000004 Vminpu=0.7 Vmaxpu=1.3 model=1 kW=0.0 kvar=0.0 Phases=3
New Load.77 bus1=8321.1.2.3 kV=0.41500000000000004 Vminpu=0.7 Vmaxpu=1.3 model=1 kW=0.0 kvar=0.0 Phases=3
New Load.78 bus1=8322.1.2.3 kV=0.41500000000000004 Vminpu=0.7 Vmaxpu=1.3 model=1 kW=0.0 kvar=0.0 Phases=3
New Load.79 bus1=8323.1.2.3 kV=0.41500000000000004 Vminpu=0.7 Vmaxpu=1.3 model=1 kW=0.0 kvar=0.0 Phases=3
New Load.80 bus1=8328.1.2.3 kV=0.41500000000000004 Vminpu=0.7 Vmaxpu=1.3 model=1 kW=0.0 kvar=0.0 Phases=3
New Load.81 bus1=8331.1.2.3 kV=0.41500000000000004 Vminpu=0.7 Vmaxpu=1.3 model=1 kW=0.0 kvar=0.0 Phases=3
New Load.82 bus1=8334.1.2.3 kV=0.41500000000000004 Vminpu=0.7 Vmaxpu=1.3 model=1 kW=0.0 kvar=0.0 Phases=3
New Load.83 bus1=8335.1.2.3 kV=0.41500000000000004 Vminpu=0.7 Vmaxpu=1.3 model=1 kW=0.0 kvar=0.0 Phases=3
New Load.84 bus1=8324.1.2.3 kV=0.41500000000000004 Vminpu=0.7 Vmaxpu=1.3 model=1 kW=0.0 kvar=0.0 Phases=3
New Load.85 bus1=8325.1.2.3 kV=0.41500000000000004 Vminpu=0.7 Vmaxpu=1.3 model=1 kW=0.0 kvar=0.0 Phases=3
New Load.86 bus1=8362.1.2.3 kV=0.41500000000000004 Vminpu=0.7 Vmaxpu=1.3 model=1 kW=0.0 kvar=0.0 Phases=3
New Load.87 bus1=8374.1.2.3 kV=0.41500000000000004 Vminpu=0.7 Vmaxpu=1.3 model=1 kW=0.0 kvar=0.0 Phases=3
New Load.88 bus1=8377.1.2.3 kV=0.41500000000000004 Vminpu=0.7 Vmaxpu=1.3 model=1 kW=0.0 kvar=0.0 Phases=3
New Load.89 bus1=8378.1.2.3 kV=0.41500000000000004 Vminpu=0.7 Vmaxpu=1.3 model=1 kW=0.0 kvar=0.0 Phases=3
New Load.90 bus1=8380.1.2.3 kV=0.41500000000000004 Vminpu=0.7 Vmaxpu=1.3 model=1 kW=0.0 kvar=0.0 Phases=3
New Load.91 bus1=8370.1.2.3 kV=0.41500000000000004 Vminpu=0.7 Vmaxpu=1.3 model=1 kW=0.0 kvar=0.0 Phases=3
New Load.92 bus1=8371.1.2.3 kV=0.41500000000000004 Vminpu=0.7 Vmaxpu=1.3 model=1 kW=0.0 kvar=0.0 Phases=3
New Load.93 bus1=8372.1.2.3 kV=0.41500000000000004 Vminpu=0.7 Vmaxpu=1.3 model=1 kW=0.0 kvar=0.0 Phases=3
New Load.94 bus1=8381.1.2.3 kV=0.41500000000000004 Vminpu=0.7 Vmaxpu=1.3 model=1 kW=0.0 kvar=0.0 Phases=3
New Load.95 bus1=7273.1.2.3 kV=0.41500000000000004 Vminpu=0.7 Vmaxpu=1.3 model=1 kW=0.0 kvar=0.0 Phases=3
New Load.96 bus1=6765.1.2.3 kV=0.41500000000000004 Vminpu=0.7 Vmaxpu=1.3 model=1 kW=0.0 kvar=0.0 Phases=3
New Load.97 bus1=7019.1.2.3 kV=0.41500000000000004 Vminpu=0.7 Vmaxpu=1.3 model=1 kW=0.0 kvar=0.0 Phases=3
New Load.98 bus1=7787.1.2.3 kV=0.41500000000000004 Vminpu=0.7 Vmaxpu=1.3 model=1 kW=0.0 kvar=0.0 Phases=3
New Load.99 bus1=7851.1.2.3 kV=0.41500000000000004 Vminpu=0.7 Vmaxpu=1.3 model=1 kW=0.0 kvar=0.0 Phases=3
New Load.100 bus1=7394.1.2.3 kV=0.41500000000000004 Vminpu=0.7 Vmaxpu=1.3 model=1 kW=0.0 kvar=0.0 Phases=3
New Load.101 bus1=7315.1.2.3 kV=0.41500000000000004 Vminpu=0.7 Vmaxpu=1.3 model=1 kW=0.0 kvar=0.0 Phases=3
New Load.102 bus1=7318.1.2.3 kV=0.41500000000000004 Vminpu=0.7 Vmaxpu=1.3 model=1 kW=0.0 kvar=0.0 Phases=3
New Load.103 bus1=7311.1.2.3 kV=0.41500000000000004 Vminpu=0.7 Vmaxpu=1.3 model=1 kW=0.0 kvar=0.0 Phases=3
New Load.104 bus1=7209.1.2.3 kV=0.41500000000000004 Vminpu=0.7 Vmaxpu=1.3 model=1 kW=0.0 kvar=0.0 Phases=3
New Load.105 bus1=7212.1.2.3 kV=0.41500000000000004 Vminpu=0.7 Vmaxpu=1.3 model=1 kW=0.0 kvar=0.0 Phases=3
New Load.106 bus1=7213.1.2.3 kV=0.41500000000000004 Vminpu=0.7 Vmaxpu=1.3 model=1 kW=0.0 kvar=0.0 Phases=3
New Load.107 bus1=7731.1.2.3 kV=0.41500000000000004 Vminpu=0.7 Vmaxpu=1.3 model=1 kW=0.0 kvar=0.0 Phases=3
New Load.108 bus1=8152.1.2.3 kV=0.41500000000000004 Vminpu=0.7 Vmaxpu=1.3 model=1 kW=0.0 kvar=0.0 Phases=3
New Load.109 bus1=8027.1.2.3 kV=0.41500000000000004 Vminpu=0.7 Vmaxpu=1.3 model=1 kW=0.0 kvar=0.0 Phases=3
New Load.110 bus1=8348.1.2.3 kV=0.41500000000000004 Vminpu=0.7 Vmaxpu=1.3 model=1 kW=0.0 kvar=0.0 Phases=3
New Load.111 bus1=8384.1.2.3 kV=0.41500000000000004 Vminpu=0.7 Vmaxpu=1.3 model=1 kW=0.0 kvar=0.0 Phases=3
New Load.112 bus1=8300.1.2.3 kV=0.41500000000000004 Vminpu=0.7 Vmaxpu=1.3 model=1 kW=0.0 kvar=0.0 Phases=3
New Load.113 bus1=8825.1.2.3 kV=0.41500000000000004 Vminpu=0.7 Vmaxpu=1.3 model=1 kW=0.0 kvar=0.0 Phases=3
New Load.114 bus1=8565.1.2.3 kV=0.41500000000000004 Vminpu=0.7 Vmaxpu=1.3 model=1 kW=0.0 kvar=0.0 Phases=3
New Load.115 bus1=7375.1.2.3 kV=0.41500000000000004 Vminpu=0.7 Vmaxpu=1.3 model=1 kW=0.0 kvar=0.0 Phases=3
New Load.116 bus1=7393.1.2.3 kV=0.41500000000000004 Vminpu=0.7 Vmaxpu=1.3 model=1 kW=0.0 kvar=0.0 Phases=3
New Load.117 bus1=9018.1.2.3 kV=0.41500000000000004 Vminpu=0.7 Vmaxpu=1.3 model=1 kW=0.0 kvar=0.0 Phases=3
New Load.118 bus1=9016.1.2.3 kV=0.41500000000000004 Vminpu=0.7 Vmaxpu=1.3 model=1 kW=0.0 kvar=0.0 Phases=3
New Load.119 bus1=9009.1.2.3 kV=0.41500000000000004 Vminpu=0.7 Vmaxpu=1.3 model=1 kW=0.0 kvar=0.0 Phases=3
New Load.120 bus1=6892.1.2.3 kV=0.41500000000000004 Vminpu=0.7 Vmaxpu=1.3 model=1 kW=0.0 kvar=0.0 Phases=3
New Load.121 bus1=7013.1.2.3 kV=0.41500000000000004 Vminpu=0.7 Vmaxpu=1.3 model=1 kW=0.0 kvar=0.0 Phases=3
New Load.122 bus1=7023.1.2.3 kV=0.41500000000000004 Vminpu=0.7 Vmaxpu=1.3 model=1 kW=0.0 kvar=0.0 Phases=3
New Load.123 bus1=7025.1.2.3 kV=0.41500000000000004 Vminpu=0.7 Vmaxpu=1.3 model=1 kW=0.0 kvar=0.0 Phases=3
New Load.124 bus1=7414.1.2.3 kV=0.41500000000000004 Vminpu=0.7 Vmaxpu=1.3 model=1 kW=0.0 kvar=0.0 Phases=3
New Load.125 bus1=7589.1.2.3 kV=0.41500000000000004 Vminpu=0.7 Vmaxpu=1.3 model=1 kW=0.0 kvar=0.0 Phases=3
New Load.126 bus1=7471.1.2.3 kV=0.41500000000000004 Vminpu=0.7 Vmaxpu=1.3 model=1 kW=0.0 kvar=0.0 Phases=3
New Load.127 bus1=7856.1.2.3 kV=0.41500000000000004 Vminpu=0.7 Vmaxpu=1.3 model=1 kW=0.0 kvar=0.0 Phases=3
New Load.128 bus1=8047.1.2.3 kV=0.41500000000000004 Vminpu=0.7 Vmaxpu=1.3 model=1 kW=0.0 kvar=0.0 Phases=3
New Load.129 bus1=7877.1.2.3 kV=0.41500000000000004 Vminpu=0.7 Vmaxpu=1.3 model=1 kW=0.0 kvar=0.0 Phases=3
New Load.130 bus1=7870.1.2.3 kV=0.41500000000000004 Vminpu=0.7 Vmaxpu=1.3 model=1 kW=0.0 kvar=0.0 Phases=3
New Load.131 bus1=8109.1.2.3 kV=0.41500000000000004 Vminpu=0.7 Vmaxpu=1.3 model=1 kW=0.0 kvar=0.0 Phases=3
New Load.132 bus1=8536.1.2.3 kV=0.41500000000000004 Vminpu=0.7 Vmaxpu=1.3 model=1 kW=0.0 kvar=0.0 Phases=3
New Load.133 bus1=8314.1.2.3 kV=0.41500000000000004 Vminpu=0.7 Vmaxpu=1.3 model=1 kW=0.0 kvar=0.0 Phases=3
New Load.134 bus1=6643.1.2.3 kV=0.41500000000000004 Vminpu=0.7 Vmaxpu=1.3 model=1 kW=0.0 kvar=0.0 Phases=3
New Load.135 bus1=7026.1.2.3 kV=0.41500000000000004 Vminpu=0.7 Vmaxpu=1.3 model=1 kW=0.0 kvar=0.0 Phases=3
New Load.136 bus1=7160.1.2.3 kV=0.41500000000000004 Vminpu=0.7 Vmaxpu=1.3 model=1 kW=0.0 kvar=0.0 Phases=3
