New Transformer.1 phases=3 windings=2 %loadloss=0.0 wdg=1 conn=delta Kv=22.0 kva=500.0 bus=sourcebus_22000 wdg=2 conn=wye Kv=0.41500000000000004 kva=500.0 bus=7958 
