New Load.1 bus1=5698.3 kV=0.23094010767585033 Vminpu=0.7 Vmaxpu=1.3 model=1 kW=0.0 kvar=0.0 Phases=1
New Load.2 bus1=6339.1 kV=0.23094010767585033 Vminpu=0.7 Vmaxpu=1.3 model=1 kW=0.0 kvar=0.0 Phases=1
New Load.3 bus1=7800.1 kV=0.23094010767585033 Vminpu=0.7 Vmaxpu=1.3 model=1 kW=0.17367951352537384 kvar=0.03526712939602782 Phases=1
New Load.4 bus1=6027.3 kV=0.23094010767585033 Vminpu=0.7 Vmaxpu=1.3 model=1 kW=1.418242936084455 kvar=0.28798651105494705 Phases=1
New Load.5 bus1=7802.1 kV=0.23094010767585033 Vminpu=0.7 Vmaxpu=1.3 model=1 kW=3.3638727121391314 kvar=0.6830634874702471 Phases=1
New Load.6 bus1=7803.2 kV=0.23094010767585033 Vminpu=0.7 Vmaxpu=1.3 model=1 kW=2.341678881214557 kvar=0.47549817725436133 Phases=1
New Load.7 bus1=5581.1 kV=0.23094010767585033 Vminpu=0.7 Vmaxpu=1.3 model=1 kW=2.613517263453635 kvar=0.530697315060743 Phases=1
New Load.8 bus1=6411.3 kV=0.23094010767585033 Vminpu=0.7 Vmaxpu=1.3 model=1 kW=0.3644874006996607 kvar=0.07401232340404269 Phases=1
New Load.9 bus1=5697.1 kV=0.23094010767585033 Vminpu=0.7 Vmaxpu=1.3 model=1 kW=2.6481334015808 kvar=0.5377264217051667 Phases=1
New Load.10 bus1=5860.3 kV=0.23094010767585033 Vminpu=0.7 Vmaxpu=1.3 model=1 kW=1.336793216449175 kvar=0.27144744007679183 Phases=1
New Load.11 bus1=6386.2 kV=0.23094010767585033 Vminpu=0.7 Vmaxpu=1.3 model=1 kW=1.7674585568318293 kvar=0.35889776727638123 Phases=1
New Load.12 bus1=5698.3 kV=0.23094010767585033 Vminpu=0.7 Vmaxpu=1.3 model=1 kW=4.193641300061784 kvar=0.85155518556999 Phases=1
New Load.13 bus1=6194.3 kV=0.23094010767585033 Vminpu=0.7 Vmaxpu=1.3 model=1 kW=1.5007107031797746 kvar=0.30473230538679963 Phases=1
New Load.14 bus1=6339.1 kV=0.23094010767585033 Vminpu=0.7 Vmaxpu=1.3 model=1 kW=2.598245483501349 kvar=0.5275962478781345 Phases=1
New Load.15 bus1=5762.3 kV=0.23094010767585033 Vminpu=0.7 Vmaxpu=1.3 model=1 kW=2.663405181533086 kvar=0.5408274888877752 Phases=1
New Load.16 bus1=4894.3 kV=0.23094010767585033 Vminpu=0.7 Vmaxpu=1.3 model=1 kW=1.9201767447371265 kvar=0.38990851796688303 Phases=1
New Load.17 bus1=5583.2 kV=0.23094010767585033 Vminpu=0.7 Vmaxpu=1.3 model=1 kW=1.891669279752633 kvar=0.384119830309061 Phases=1
New Load.18 bus1=5617.3 kV=0.23094010767585033 Vminpu=0.7 Vmaxpu=1.3 model=1 kW=1.135205157924466 kvar=0.23051323891295525 Phases=1
New Load.19 bus1=6345.1 kV=0.23094010767585033 Vminpu=0.7 Vmaxpu=1.3 model=1 kW=3.166357134741406 kvar=0.6429562388695129 Phases=1
New Load.20 bus1=5699.1 kV=0.23094010767585033 Vminpu=0.7 Vmaxpu=1.3 model=1 kW=2.816123369438383 kvar=0.5718382395782771 Phases=1
New Load.21 bus1=6420.1 kV=0.23094010767585033 Vminpu=0.7 Vmaxpu=1.3 model=1 kW=2.0321699271813705 kvar=0.4126497035941508 Phases=1
New Load.22 bus1=6228.3 kV=0.23094010767585033 Vminpu=0.7 Vmaxpu=1.3 model=1 kW=4.324979034872125 kvar=0.8782244500912816 Phases=1
New Load.23 bus1=6092.1 kV=0.23094010767585033 Vminpu=0.7 Vmaxpu=1.3 model=1 kW=1.7766216636414447 kvar=0.36075841547238807 Phases=1
New Load.24 bus1=5584.3 kV=0.23094010767585033 Vminpu=0.7 Vmaxpu=1.3 model=1 kW=4.186514482363466 kvar=0.8501080235135868 Phases=1
New Load.25 bus1=5586.3 kV=0.23094010767585033 Vminpu=0.7 Vmaxpu=1.3 model=1 kW=2.845648978978525 kvar=0.5778336703059008 Phases=1
New Load.26 bus1=6037.3 kV=0.23094010767585033 Vminpu=0.7 Vmaxpu=1.3 model=1 kW=2.180815731055293 kvar=0.4428335214376545 Phases=1
New Load.27 bus1=5585.1 kV=0.23094010767585033 Vminpu=0.7 Vmaxpu=1.3 model=1 kW=2.7377279863744386 kvar=0.5559193780934226 Phases=1
New Load.28 bus1=5918.2 kV=0.23094010767585033 Vminpu=0.7 Vmaxpu=1.3 model=1 kW=2.1411090643411055 kvar=0.4347707388764307 Phases=1
New Load.29 bus1=8035.2 kV=0.23094010767585033 Vminpu=0.7 Vmaxpu=1.3 model=1 kW=3.3567458944408126 kvar=0.6816163254138439 Phases=1
New Load.30 bus1=8036.1 kV=0.23094010767585033 Vminpu=0.7 Vmaxpu=1.3 model=1 kW=0.6342895423752466 kvar=0.128797984928873 Phases=1
New Load.31 bus1=8062.3 kV=0.23094010767585033 Vminpu=0.7 Vmaxpu=1.3 model=1 kW=1.4630402284812742 kvar=0.297082989249075 Phases=1
New Load.32 bus1=6367.2 kV=0.23094010767585033 Vminpu=0.7 Vmaxpu=1.3 model=1 kW=2.620164988571276 kvar=0.5320471932193941 Phases=1
New Load.33 bus1=6425.3 kV=0.23094010767585033 Vminpu=0.7 Vmaxpu=1.3 model=1 kW=2.620164988571276 kvar=0.5320471932193941 Phases=1
New Load.34 bus1=5582.1 kV=0.23094010767585033 Vminpu=0.7 Vmaxpu=1.3 model=1 kW=2.620164988571276 kvar=0.5320471932193941 Phases=1
New Load.35 bus1=5763.1 kV=0.23094010767585033 Vminpu=0.7 Vmaxpu=1.3 model=1 kW=2.620164988571276 kvar=0.5320471932193941 Phases=1
New Load.36 bus1=8220.2 kV=0.23094010767585033 Vminpu=0.7 Vmaxpu=1.3 model=1 kW=2.620164988571276 kvar=0.5320471932193941 Phases=1
