Clear

New Circuit.Full_Network  bus1=n034871 pu=1.0 basekV=0.433 

Redirect LineCodes.dss
Redirect Lines.dss
Redirect Loads.dss

Set Voltagebases=[0.433]

Calcvoltagebases


Solve