New Linecode.unknown_linecode_3 units=km nphases=3 R1=0.1 R0=0.4 X1=0.05 X0=0.2 C1=0.0 C0=0.0 
