New Line.line0 Units=km Length=0.03154 bus1=54.1.2.3 bus2=55.1.2.3 switch=n enabled=y phases=3 Linecode=unknown_linecode_3
New Line.line1 Units=km Length=0.001 bus1=55.1.2.3 bus2=156.1.2.3 switch=n enabled=y phases=3 Linecode=unknown_linecode_3
New Line.line2 Units=km Length=0.03676 bus1=55.1.2.3 bus2=157.1.2.3 switch=n enabled=y phases=3 Linecode=unknown_linecode_3
