New Linecode.unknown_linecode_3 units=km nphases=3 R1=0.0 R0=0.0 X1=0.0 X0=0.0 C1=0.0 C0=0.0 
