New Linecode.415V_185CU4_P_L_*_3 units=km nphases=3 Faultrate=0.1 Cmatrix=(2799.9999999999995 -600.0 -600.0 | -600.0 2799.9999999999995 -600.0 | -600.0 -600.0 2799.9999999999995 ) R1=0.907 R0=0.822 X1=0.082 X0=0.081 C1=0.0 C0=0.0 BaseFreq=50 normamps=400.0 emergamps=600.0
