New Linecode.1P_Code1 units=km nphases=1 R1=1.247 R0=4.988 X1=0.2494 X0=0.9976 
New Linecode.1P_Code2 units=km nphases=1 R1=0.7839 R0=3.1356 X1=0.0915 X0=0.366 
New Linecode.1P_OH_Code0 units=km nphases=1 R1=0.3751 R0=1.5004 X1=0.3601 X0=1.4404
