New Linecode.3P_OH_Code0 units=km nphases=3 R1=0.5 R0=1.0 X1=0.5 X0=2.0 C1=0.0001 C0=0.0001 BaseFreq=50
New Linecode.3P_OH_Code1 units=km nphases=3 Rmatrix=(1e-05 0.0 0.0 | 0.0 1e-05 0.0 | 0.0 0.0 1e-05 ) Xmatrix=(1e-05 0.0 0.0 | 0.0 1e-05 0.0 | 0.0 0.0 1e-05 ) R1=0.5 R0=1.0 X1=0.5 X0=2.0 C1=0.0001 C0=0.0001 BaseFreq=50
