New Transformer.50-3185-substation_site133534_856 phases=3 windings=2 %loadloss=0.0 wdg=1 conn=delta Kv=22.0 kva=50.0 bus=sourcebus_22000 wdg=2 conn=wye Kv=0.41500000000000004 kva=50.0 bus=7958 XHL=48.4
