New Linecode.185_SQ_MM_CU_3 units=km nphases=3  R1=0.119 R0=0.12 X1=0.08 X0=0.079 C1=0.0 C0=0.0   
New Linecode.95AL_ABC_3 units=km nphases=3  R1=0.398 R0=0.398 X1=0.087 X0=0.087 C1=0.0 C0=0.0   
New Linecode.Twin_95AL_ABC_3 units=km nphases=3  R1=0.199 R0=0.199 X1=0.043 X0=0.043 C1=0.0 C0=0.0   
