New Load.NMI_elem_75633332 bus1=3106168.3 kV=0.23094010767585033 Vminpu=0.7 Vmaxpu=1.3 model=1 kW=0.8428991294336783 kvar=0.17115796827237081 Phases=1
