New Transformer.trafo_75604448_75604448 phases=2 windings=2 %loadloss=0.17000000000000004 wdg=1 conn=delta Kv=11.0 kva=15.0 bus=sourcebus_11000.1.2 wdg=2 conn=wye Kv=0.41500000000000004 kva=15.0 bus=3100291.3
