Clear

New Circuit.D  bus1=57 pu=1.0 basekV=0.433 

Redirect LineCodes.dss
Redirect Lines.dss
Redirect Loads.dss

Set Voltagebases=[0.433]

Calcvoltagebases


Solve