New Linecode.3P_OH_Code0 units=km nphases=3 R1=0.5 R0=1.0 X1=0.5 X0=2.0 
New Linecode.3P_OH_Code1 units=km nphases=3 R1=0.5 R0=1.0 X1=0.5 X0=2.0 
