New Linecode.185_SQ_MM_CU_3 units=km nphases=3 R1=0.119 R0=0.12 X1=0.08 X0=0.079 C1=0.0 C0=0.0 BaseFreq=50
New Linecode.unknown_linecode_3 units=km nphases=3 R1=0.01 R0=0.04 X1=0.01 X0=0.04 C1=0.0 C0=0.0 BaseFreq=50
