New Line.line_75619068_3112114_3106168 Units=km Length=0.021100000381469728 bus1=3106168.3 bus2=3112114.3 switch=n enabled=y phases=1 Linecode=1P_Code0
New Line.line_75624856_3112114_3108802 Units=km Length=0.0335 bus1=3108802.3 bus2=3112114.3 switch=n enabled=y phases=1 Linecode=1P_Code0
