New Transformer.1 phases=3 windings=2 %loadloss=0.0 wdg=1 conn=delta Kv=11.0 kva=150.0 bus=sourcebus_11000 wdg=2 conn=wye Kv=0.433 kva=150.0 bus=70 
