New Load.75613665_nmi_elem_75613665 bus1=3103037.3 kV=0.23094010767585033 Vminpu=0.7 Vmaxpu=1.3 model=1 kW=0.0 kvar=0.0 Phases=1
New Load.75613678_nmi_elem_75613678 bus1=3102663.2 kV=0.23094010767585033 Vminpu=0.7 Vmaxpu=1.3 model=1 kW=0.0 kvar=0.0 Phases=1
New Load.75613989_nmi_elem_75613989 bus1=3102547.1 kV=0.23094010767585033 Vminpu=0.7 Vmaxpu=1.3 model=1 kW=0.0 kvar=0.0 Phases=1
New Load.NMI_elem_75612637 bus1=3103037.3 kV=0.23094010767585033 Vminpu=0.7 Vmaxpu=1.3 model=1 kW=19.51476174823392 kvar=3.9626413831880773 Phases=1
New Load.NMI_elem_75612638 bus1=3102683.3 kV=0.23094010767585033 Vminpu=0.7 Vmaxpu=1.3 model=1 kW=5.891896852563591 kvar=1.1964006834752674 Phases=1
New Load.NMI_elem_75612639 bus1=3103045.3 kV=0.23094010767585033 Vminpu=0.7 Vmaxpu=1.3 model=1 kW=18.024503375331143 kvar=3.66003151398783 Phases=1
New Load.NMI_elem_75612642 bus1=3103411.3 kV=0.23094010767585033 Vminpu=0.7 Vmaxpu=1.3 model=1 kW=8.55348714115263 kvar=1.7368596426326302 Phases=1
New Load.NMI_elem_75612643 bus1=3103412.3 kV=0.23094010767585033 Vminpu=0.7 Vmaxpu=1.3 model=1 kW=9.364855669930641 kvar=1.9016150493668762 Phases=1
New Load.NMI_elem_75612644 bus1=3103413.1 kV=0.23094010767585033 Vminpu=0.7 Vmaxpu=1.3 model=1 kW=13.565769801155819 kvar=2.7546470462919217 Phases=1
New Load.NMI_elem_75612645 bus1=3103414.1 kV=0.23094010767585033 Vminpu=0.7 Vmaxpu=1.3 model=1 kW=11.048254254120463 kvar=2.2434437111856407 Phases=1
New Load.NMI_elem_75612646 bus1=3103415.2 kV=0.23094010767585033 Vminpu=0.7 Vmaxpu=1.3 model=1 kW=9.478598563427905 kvar=1.9247115289770662 Phases=1
New Load.NMI_elem_75612647 bus1=3103416.3 kV=0.23094010767585033 Vminpu=0.7 Vmaxpu=1.3 model=1 kW=5.838816570439652 kvar=1.1856222724811054 Phases=1
New Load.NMI_elem_75612648 bus1=3103038.2 kV=0.23094010767585033 Vminpu=0.7 Vmaxpu=1.3 model=1 kW=20.458606792186142 kvar=4.1542972936590585 Phases=1
New Load.NMI_elem_75612649 bus1=3102723.1 kV=0.23094010767585033 Vminpu=0.7 Vmaxpu=1.3 model=1 kW=11.298489198342185 kvar=2.2942560838031283 Phases=1
New Load.NMI_elem_75612650 bus1=3102663.2 kV=0.23094010767585033 Vminpu=0.7 Vmaxpu=1.3 model=1 kW=22.498401608005246 kvar=4.568495296927471 Phases=1
New Load.NMI_elem_75612651 bus1=3102986.1 kV=0.23094010767585033 Vminpu=0.7 Vmaxpu=1.3 model=1 kW=10.53261898401857 kvar=2.1387395038630967 Phases=1
New Load.NMI_elem_75612652 bus1=3103417.1 kV=0.23094010767585033 Vminpu=0.7 Vmaxpu=1.3 model=1 kW=5.800902393133846 kvar=1.177923470418348 Phases=1
New Load.NMI_elem_75612653 bus1=3103418.2 kV=0.23094010767585033 Vminpu=0.7 Vmaxpu=1.3 model=1 kW=8.303252196930908 kvar=1.6860472700151428 Phases=1
New Load.NMI_elem_75612654 bus1=3102962.1 kV=0.23094010767585033 Vminpu=0.7 Vmaxpu=1.3 model=1 kW=36.541892140377314 kvar=7.420147675057262 Phases=1
New Load.NMI_elem_75612655 bus1=3102933.1 kV=0.23094010767585033 Vminpu=0.7 Vmaxpu=1.3 model=1 kW=10.236886448502135 kvar=2.0786884512952315 Phases=1
New Load.NMI_elem_75612707 bus1=3102584.2 kV=0.23094010767585033 Vminpu=0.7 Vmaxpu=1.3 model=1 kW=3.4502100217196934 kvar=0.7005950259164194 Phases=1
New Load.NMI_elem_75612708 bus1=3103426.3 kV=0.23094010767585033 Vminpu=0.7 Vmaxpu=1.3 model=1 kW=11.882371216965996 kvar=2.412818384473157 Phases=1
New Load.NMI_elem_75612709 bus1=3102618.3 kV=0.23094010767585033 Vminpu=0.7 Vmaxpu=1.3 model=1 kW=18.86620194426638 kvar=3.8309456980533767 Phases=1
New Load.NMI_elem_75612710 bus1=3103010.3 kV=0.23094010767585033 Vminpu=0.7 Vmaxpu=1.3 model=1 kW=9.615090614152361 kvar=1.9524274219843634 Phases=1
New Load.NMI_elem_75612711 bus1=3102970.3 kV=0.23094010767585033 Vminpu=0.7 Vmaxpu=1.3 model=1 kW=15.74963972010845 kvar=3.198100747033334 Phases=1
New Load.NMI_elem_75612712 bus1=3102698.3 kV=0.23094010767585033 Vminpu=0.7 Vmaxpu=1.3 model=1 kW=17.34204456802821 kvar=3.521452342639016 Phases=1
New Load.NMI_elem_75612713 bus1=3103427.3 kV=0.23094010767585033 Vminpu=0.7 Vmaxpu=1.3 model=1 kW=27.139124101040068 kvar=5.510834190737219 Phases=1
New Load.NMI_elem_75612717 bus1=3102482.3 kV=0.23094010767585033 Vminpu=0.7 Vmaxpu=1.3 model=1 kW=19.51476174823392 kvar=3.9626413831880773 Phases=1
New Load.NMI_elem_75612807 bus1=3103455.3 kV=0.23094010767585033 Vminpu=0.7 Vmaxpu=1.3 model=1 kW=8.947797188507879 kvar=1.8169277127231178 Phases=1
New Load.NMI_elem_75612958 bus1=3102444.3 kV=0.23094010767585033 Vminpu=0.7 Vmaxpu=1.3 model=1 kW=19.51476174823392 kvar=3.9626413831880773 Phases=1
New Load.NMI_elem_75612961 bus1=3102547.1 kV=0.23094010767585033 Vminpu=0.7 Vmaxpu=1.3 model=1 kW=18.540139368592726 kvar=3.7647358681542107 Phases=1
New Load.NMI_elem_75612992 bus1=3103475.3 kV=0.23094010767585033 Vminpu=0.7 Vmaxpu=1.3 model=1 kW=42.263398300460885 kvar=8.581949052733036 Phases=1
New Load.NMI_elem_75613203 bus1=3103504.1 kV=0.23094010767585033 Vminpu=0.7 Vmaxpu=1.3 model=1 kW=19.51476174823392 kvar=3.9626413831880773 Phases=1
New Load.NMI_elem_75613213 bus1=3103506.1 kV=0.23094010767585033 Vminpu=0.7 Vmaxpu=1.3 model=1 kW=16.726938641343356 kvar=3.3965497570183514 Phases=1
