New Linecode.25AL_ABC_3 units=km nphases=3 R1=1.49 R0=(4 1.49 *) X1=0.102 X0=(4 0.102 *) 
