New Linecode.7/4.4_Al_3 units=km nphases=3  R1=0.258 R0=0.258 X1=0.34 X0=0.34 C1=0.0 C0=0.0 
New Linecode.LV_240AL_XLPE_3 units=km nphases=3  R1=0.279 R0=0.265 X1=0.062 X0=0.062 C1=0.0 C0=0.0 
New Linecode.unknown_linecode_3 units=km nphases=3  R1=0.0 R0=0.0 X1=0.0 X0=0.0 C1=0.0 C0=0.0 
