Clear

New Circuit.F  bus1=41 pu=1.0 basekV=0.433 

Redirect LineCodes.dss
Redirect Lines.dss
Redirect Loads.dss

Set Voltagebases=[0.433]

Calcvoltagebases


Solve