New Load.NMI_elem_75621488 bus1=3106854.1 kV=0.23094010767585033 Vminpu=0.7 Vmaxpu=1.3 model=1 kW=2.749357106713632 kvar=0.5582807716938509 Phases=1
New Load.NMI_elem_75622124 bus1=3104561.1 kV=0.23094010767585033 Vminpu=0.7 Vmaxpu=1.3 model=1 kW=2.965444759671191 kvar=0.6021592410829585 Phases=1
