New Transformer.trafo_75618991_75618991 phases=3 windings=2 %loadloss=0.16999999999999998 wdg=1 conn=delta Kv=22.0 kva=25.0 bus=sourcebus_22000 wdg=2 conn=wye Kv=0.41500000000000004 kva=25.0 bus=3103751 XHL=193.6
