New Transformer.trafo_75612672_75612672 phases=3 windings=2 %loadloss=0.17000000000000004 wdg=1 conn=delta Kv=22.0 kva=315.0 bus=sourcebus_22000 wdg=2 conn=wye Kv=0.41500000000000004 kva=315.0 bus=3097408 XHL=15.365079365079367
