Clear

New Circuit.Full_Network  bus1=trafo_75615289_75615289 pu=1.0 basekV=11.0

Redirect LineCodes.dss
Redirect Lines.dss
Redirect Transformers.dss
Redirect Regulators.dss
Redirect Loads.dss

Set Voltagebases=[0.4, 0.41500000000000004, 11.0]

Calcvoltagebases

Buscoords Buscoords.dss

Solve