New Line.line_75616329_3108995_3104154 Units=km Length=0.03179999923706055 bus1=3104154.3 bus2=3108995.3 switch=n enabled=y phases=1 Linecode=1P_Code0
New Line.line_75625428_3115553_3108995 Units=km Length=0.025200000762939455 bus1=3108995.3 bus2=3115553.3 switch=n enabled=y phases=1 Linecode=1P_Code0
