New Load.1 bus1=3115553.3 kV=0.23094010767585033 Vminpu=0.3 Vmaxpu=1.3 model=1 kW=1.474742755440794 kvar=0.2994592886995084 Phases=1
