New Line.line_75584501_4480_4226 Units=km Length=0.053900001525878906 bus1=4226.1.2.3 bus2=4480.1.2.3 switch=n enabled=y phases=3 Linecode=3P_OH_Code4
New Line.line_75584525_4541_4249 Units=km Length=0.039599998474121094 bus1=4249.1.2.3 bus2=4541.1.2.3 switch=n enabled=y phases=3 Linecode=3P_OH_Code4
New Line.line_75584527_4253_4251 Units=km Length=0.0475 bus1=4251.1.2.3 bus2=4253.1.2.3 switch=n enabled=y phases=3 Linecode=3P_OH_Code0
New Line.line_75584529_4778_4253 Units=km Length=0.020899999618530275 bus1=4253.1.2.3 bus2=4778.1.2.3 switch=n enabled=y phases=3 Linecode=3P_Code1
New Line.line_75584530_4778_4253 Units=km Length=0.020899999618530275 bus1=4253.1.2.3 bus2=4778.1.2.3 switch=n enabled=y phases=3 Linecode=3P_Code1
New Line.line_75584532_4380_4255 Units=km Length=0.044400001525878904 bus1=4255.1.2.3 bus2=4380.1.2.3 switch=n enabled=y phases=3 Linecode=3P_OH_Code4
New Line.line_75584587_4457_4251 Units=km Length=0.027600000381469727 bus1=4251.1.2.3 bus2=4457.1.2.3 switch=n enabled=y phases=3 Linecode=3P_Code1
New Line.line_75584590_4379_4308 Units=km Length=0.04729999923706055 bus1=4308.1.2.3 bus2=4379.1.2.3 switch=n enabled=y phases=3 Linecode=3P_OH_Code0
New Line.line_75584609_4798_4249 Units=km Length=0.02160000038146973 bus1=4249.1.2.3 bus2=4798.1.2.3 switch=n enabled=y phases=3 Linecode=3P_Code1
New Line.line_75584679_4251_4379 Units=km Length=0.04609999847412109 bus1=4379.1.2.3 bus2=4251.1.2.3 switch=n enabled=y phases=3 Linecode=3P_OH_Code0
New Line.line_75584680_4549_4380 Units=km Length=0.05629999923706055 bus1=4380.1.2.3 bus2=4549.1.2.3 switch=n enabled=y phases=3 Linecode=3P_OH_Code4
New Line.line_75584803_4906_4226 Units=km Length=0.021200000762939455 bus1=4226.1.2.3 bus2=4906.1.2.3 switch=n enabled=y phases=3 Linecode=3P_Code1
New Line.line_75584811_4914_4380 Units=km Length=0.031700000762939454 bus1=4380.1.2.3 bus2=4914.1.2.3 switch=n enabled=y phases=3 Linecode=3P_Code1
New Line.line_75584812_4915_4450 Units=km Length=0.013100000381469726 bus1=4450.1.2.3 bus2=4915.1.2.3 switch=n enabled=y phases=3 Linecode=3P_Code1
New Line.line_75584820_4922_4456 Units=km Length=0.019799999237060547 bus1=4456.1.2.3 bus2=4922.1.2.3 switch=n enabled=y phases=3 Linecode=3P_Code1
New Line.line_75584821_4923_4253 Units=km Length=0.0225 bus1=4253.1.2.3 bus2=4923.1.2.3 switch=n enabled=y phases=3 Linecode=3P_Code1
New Line.line_75584822_4924_4457 Units=km Length=0.017100000381469728 bus1=4457.1.2.3 bus2=4924.1.2.3 switch=n enabled=y phases=3 Linecode=3P_Code1
New Line.line_75584823_4924_4457 Units=km Length=0.017100000381469728 bus1=4457.1.2.3 bus2=4924.1.2.3 switch=n enabled=y phases=3 Linecode=3P_Code1
New Line.line_75584824_4925_4379 Units=km Length=0.026399999618530273 bus1=4379.1.2.3 bus2=4925.1.2.3 switch=n enabled=y phases=3 Linecode=3P_Code1
New Line.line_75584825_4926_4379 Units=km Length=0.028899999618530275 bus1=4379.1.2.3 bus2=4926.1.2.3 switch=n enabled=y phases=3 Linecode=3P_Code1
New Line.line_75584874_4971_4480 Units=km Length=0.035 bus1=4480.1.2.3 bus2=4971.1.2.3 switch=n enabled=y phases=3 Linecode=3P_Code1
New Line.line_75584880_4977_4308 Units=km Length=0.03709999847412109 bus1=4308.1.2.3 bus2=4977.1.2.3 switch=n enabled=y phases=3 Linecode=3P_Code1
New Line.line_75584926_5021_4380 Units=km Length=0.028600000381469728 bus1=4380.1.2.3 bus2=5021.1.2.3 switch=n enabled=y phases=3 Linecode=3P_Code1
New Line.line_75584927_5022_4255 Units=km Length=0.024899999618530275 bus1=4255.1.2.3 bus2=5022.1.2.3 switch=n enabled=y phases=3 Linecode=3P_Code1
New Line.line_75584945_5040_4513 Units=km Length=0.02129999923706055 bus1=4513.1.2.3 bus2=5040.1.2.3 switch=n enabled=y phases=3 Linecode=3P_Code1
New Line.line_75584946_5041_4308 Units=km Length=0.019200000762939453 bus1=4308.1.2.3 bus2=5041.1.2.3 switch=n enabled=y phases=3 Linecode=3P_Code1
New Line.line_75584947_5042_4380 Units=km Length=0.025700000762939455 bus1=4380.1.2.3 bus2=5042.1.2.3 switch=n enabled=y phases=3 Linecode=3P_Code1
New Line.line_75584981_5074_4249 Units=km Length=0.022200000762939452 bus1=4249.1.2.3 bus2=5074.1.2.3 switch=n enabled=y phases=3 Linecode=3P_Code1
New Line.line_75584982_5075_4533 Units=km Length=0.027 bus1=4533.1.2.3 bus2=5075.1.2.3 switch=n enabled=y phases=3 Linecode=3P_Code1
New Line.line_75585012_5096_4541 Units=km Length=0.018399999618530272 bus1=4541.1.2.3 bus2=5096.1.2.3 switch=n enabled=y phases=3 Linecode=3P_Code1
New Line.line_75585025_5108_4549 Units=km Length=0.03709999847412109 bus1=4549.1.2.3 bus2=5108.1.2.3 switch=n enabled=y phases=3 Linecode=3P_Code1
New Line.line_75585124_5174_4251 Units=km Length=0.007099999904632569 bus1=4251.1.2.3 bus2=5174.1.2.3 switch=n enabled=y phases=3 Linecode=3P_Code1
New Line.line_75585125_4450_4255 Units=km Length=0.015399999618530273 bus1=4255.1.2.3 bus2=4450.1.2.3 switch=n enabled=y phases=3 Linecode=3P_Code1
New Line.line_75585149_4549_4308 Units=km Length=0.040200000762939454 bus1=4308.1.2.3 bus2=4549.1.2.3 switch=n enabled=y phases=3 Linecode=3P_OH_Code0
New Line.line_75585223_5217_4249 Units=km Length=0.024899999618530275 bus1=4249.1.2.3 bus2=5217.1.2.3 switch=n enabled=y phases=3 Linecode=3P_Code1
New Line.line_75585224_5218_4456 Units=km Length=0.022399999618530272 bus1=4456.1.2.3 bus2=5218.1.2.3 switch=n enabled=y phases=3 Linecode=3P_Code1
New Line.line_75585225_5218_4456 Units=km Length=0.022399999618530272 bus1=4456.1.2.3 bus2=5218.1.2.3 switch=n enabled=y phases=3 Linecode=3P_Code1
New Line.line_75585253_5245_4249 Units=km Length=0.019600000381469727 bus1=4249.1.2.3 bus2=5245.1.2.3 switch=n enabled=y phases=3 Linecode=3P_Code1
New Line.line_75585269_5258_4255 Units=km Length=0.021200000762939455 bus1=4255.1.2.3 bus2=5258.1.2.3 switch=n enabled=y phases=3 Linecode=3P_Code1
New Line.line_75585270_5258_4255 Units=km Length=0.021200000762939455 bus1=4255.1.2.3 bus2=5258.1.2.3 switch=n enabled=y phases=3 Linecode=3P_Code1
New Line.line_75585273_5261_4533 Units=km Length=0.02179999923706055 bus1=4533.1.2.3 bus2=5261.1.2.3 switch=n enabled=y phases=3 Linecode=3P_Code1
New Line.line_75585316_4255_4635 Units=km Length=0.043900001525878904 bus1=4635.1.2.3 bus2=4255.1.2.3 switch=n enabled=y phases=3 Linecode=3P_OH_Code4
New Line.line_75585334_4513_4379 Units=km Length=0.023299999237060547 bus1=4379.1.2.3 bus2=4513.1.2.3 switch=n enabled=y phases=3 Linecode=3P_Code5
New Line.line_75585346_5300_4308 Units=km Length=0.030299999237060546 bus1=4308.1.2.3 bus2=5300.1.2.3 switch=n enabled=y phases=3 Linecode=3P_Code1
New Line.line_75585349_5303_4249 Units=km Length=0.027100000381469726 bus1=4249.1.2.3 bus2=5303.1.2.3 switch=n enabled=y phases=3 Linecode=3P_Code1
New Line.line_75585371_5315_4380 Units=km Length=0.020899999618530275 bus1=4380.1.2.3 bus2=5315.1.2.3 switch=n enabled=y phases=3 Linecode=3P_Code1
New Line.line_75585391_5328_4255 Units=km Length=0.032099998474121094 bus1=4255.1.2.3 bus2=5328.1.2.3 switch=n enabled=y phases=3 Linecode=3P_Code1
New Line.line_75585434_4549_4541 Units=km Length=0.040599998474121095 bus1=4541.1.2.3 bus2=4549.1.2.3 switch=n enabled=y phases=3 Linecode=3P_OH_Code4
New Line.line_75585464_4249_4533 Units=km Length=0.042099998474121096 bus1=4533.1.2.3 bus2=4249.1.2.3 switch=n enabled=y phases=3 Linecode=3P_OH_Code4
New Line.line_75585500_4226_4456 Units=km Length=0.019 bus1=4456.1.2.3 bus2=4226.1.2.3 switch=n enabled=y phases=3 Linecode=3P_Code1
New Line.line_75585564_5436_4251 Units=km Length=0.019799999237060547 bus1=4251.1.2.3 bus2=5436.1.2.3 switch=n enabled=y phases=3 Linecode=3P_Code1
New Line.line_75585575_5441_4255 Units=km Length=0.02979999923706055 bus1=4255.1.2.3 bus2=5441.1.2.3 switch=n enabled=y phases=3 Linecode=3P_Code1
New Line.line_75585657_5495_4513 Units=km Length=0.023 bus1=4513.1.2.3 bus2=5495.1.2.3 switch=n enabled=y phases=3 Linecode=3P_Code1
New Line.line_75585699_4253_4226 Units=km Length=0.039599998474121094 bus1=4226.1.2.3 bus2=4253.1.2.3 switch=n enabled=y phases=3 Linecode=3P_OH_Code0
New Line.line_75585792_4706_4635 Units=km Length=0.019399999618530273 bus1=4635.3 bus2=4706.3 switch=n enabled=y phases=1 Linecode=1P_Code6
New Line.line_75585793_5572_4706 Units=km Length=0.021700000762939455 bus1=4706.3 bus2=5572.3 switch=n enabled=y phases=1 Linecode=1P_Code6
New Line.line_75585806_5583_4457 Units=km Length=0.018000000000000002 bus1=4457.1.2.3 bus2=5583.1.2.3 switch=n enabled=y phases=3 Linecode=3P_Code1
New Line.line_75585823_5592_4635 Units=km Length=0.007900000095367432 bus1=4635.1.2.3 bus2=5592.1.2.3 switch=n enabled=y phases=3 Linecode=3P_Code5
New Line.line_75585853_5611_4533 Units=km Length=0.020100000381469727 bus1=4533.1.2.3 bus2=5611.1.2.3 switch=n enabled=y phases=3 Linecode=3P_Code1
New Line.line_75585901_4379_4730 Units=km Length=0.015 bus1=4730.3 bus2=4379.3 switch=n enabled=y phases=1 Linecode=1P_Code6
New Line.line_75585902_5634_4730 Units=km Length=0.010600000381469727 bus1=4730.3 bus2=5634.3 switch=n enabled=y phases=1 Linecode=1P_Code6
New Line.line_75586008_5694_4635 Units=km Length=0.018100000381469725 bus1=4635.1.2.3 bus2=5694.1.2.3 switch=n enabled=y phases=3 Linecode=3P_Code1
New Line.line_75586065_4772_4253 Units=km Length=0.023200000762939453 bus1=4253.3 bus2=4772.3 switch=n enabled=y phases=1 Linecode=1P_Code2
New Line.line_75586066_5730_4772 Units=km Length=0.024600000381469728 bus1=4772.3 bus2=5730.3 switch=n enabled=y phases=1 Linecode=1P_Code2
New Line.line_75589835_6177_5258 Units=km Length=0.004071000982599627 bus1=5258.1 bus2=6177.1 switch=n enabled=y phases=1 Linecode=1P_Code3
New Line.line_75589836_6178_5436 Units=km Length=0.03898036955003891 bus1=5436.1 bus2=6178.1 switch=n enabled=y phases=1 Linecode=1P_Code3
New Line.line_75589837_6179_5436 Units=km Length=0.025363365968765098 bus1=5436.2 bus2=6179.2 switch=n enabled=y phases=1 Linecode=1P_Code3
New Line.line_75589838_6180_5174 Units=km Length=0.016680637997439463 bus1=5174.1 bus2=6180.1 switch=n enabled=y phases=1 Linecode=1P_Code3
New Line.line_75589839_6181_5730 Units=km Length=0.02379343248145388 bus1=5730.3 bus2=6181.3 switch=n enabled=y phases=1 Linecode=1P_Code3
New Line.line_75589840_6182_5218 Units=km Length=0.004909836860722533 bus1=5218.3 bus2=6182.3 switch=n enabled=y phases=1 Linecode=1P_Code3
New Line.line_75589841_6183_4924 Units=km Length=0.007660051305084211 bus1=4924.2 bus2=6183.2 switch=n enabled=y phases=1 Linecode=1P_Code3
New Line.line_75589842_6184_4924 Units=km Length=0.01706280926466336 bus1=4924.2 bus2=6184.2 switch=n enabled=y phases=1 Linecode=1P_Code3
New Line.line_75589843_6185_4924 Units=km Length=0.01706280926466336 bus1=4924.2 bus2=6185.2 switch=n enabled=y phases=1 Linecode=1P_Code3
New Line.line_75589844_6186_4924 Units=km Length=0.01706280926466336 bus1=4924.1 bus2=6186.1 switch=n enabled=y phases=1 Linecode=1P_Code3
New Line.line_75589845_6187_4924 Units=km Length=0.007660051305084211 bus1=4924.3 bus2=6187.3 switch=n enabled=y phases=1 Linecode=1P_Code3
New Line.line_75589846_6188_5040 Units=km Length=0.006126723683335025 bus1=5040.1 bus2=6188.1 switch=n enabled=y phases=1 Linecode=1P_Code3
New Line.line_75589950_6292_5040 Units=km Length=0.006126723683335025 bus1=5040.2 bus2=6292.2 switch=n enabled=y phases=1 Linecode=1P_Code3
New Line.line_75589953_6295_5258 Units=km Length=0.02313054106570867 bus1=5258.1 bus2=6295.1 switch=n enabled=y phases=1 Linecode=1P_Code3
New Line.line_75589985_6327_4798 Units=km Length=0.033465813989784036 bus1=4798.1 bus2=6327.1 switch=n enabled=y phases=1 Linecode=1P_Code3
New Line.line_75589989_6331_4778 Units=km Length=0.010176368704362627 bus1=4778.3 bus2=6331.3 switch=n enabled=y phases=1 Linecode=1P_Code3
New Line.line_75589997_6339_4772 Units=km Length=0.008998032409496525 bus1=4772.3 bus2=6339.3 switch=n enabled=y phases=1 Linecode=1P_Code3
New Line.line_75590011_6353_5592 Units=km Length=0.016831929003937547 bus1=5592.2 bus2=6353.2 switch=n enabled=y phases=1 Linecode=1P_Code3
New Line.line_75590012_6354_5022 Units=km Length=0.02726634568922886 bus1=5022.1 bus2=6354.1 switch=n enabled=y phases=1 Linecode=1P_Code3
New Line.line_75590049_6391_4922 Units=km Length=0.024295500390785894 bus1=4922.3 bus2=6391.3 switch=n enabled=y phases=1 Linecode=1P_Code3
