New Linecode.415V_300AL3_PVC_3 units=km nphases=3  R1=0.125 R0=0.125 X1=0.073 X0=0.073 C1=0.0 C0=0.0   
New Linecode.7/4.4_Al_3 units=km nphases=3  R1=0.258 R0=0.258 X1=0.34 X0=0.34 C1=0.0 C0=0.0   
New Linecode.unknown_linecode_3 units=km nphases=3  R1=0.011 R0=0.011 X1=0.011 X0=0.011 C1=0.0 C0=0.0   
